Version 4
SHEET 1 1116 1888
WIRE 192 1344 -48 1344
WIRE 432 1344 192 1344
WIRE -48 1376 -48 1344
WIRE -576 1392 -576 1344
WIRE -48 1392 -48 1376
WIRE 192 1392 192 1344
WIRE -576 1488 -576 1472
WIRE -464 1488 -576 1488
WIRE 272 1488 272 1440
WIRE -464 1504 -464 1488
WIRE -192 1504 -352 1504
WIRE -48 1504 -48 1456
WIRE -48 1504 -112 1504
WIRE 64 1504 -48 1504
WIRE 192 1504 192 1456
WIRE 192 1504 144 1504
WIRE 240 1504 192 1504
WIRE -352 1520 -352 1504
WIRE 432 1520 432 1344
WIRE 432 1520 304 1520
WIRE 592 1520 432 1520
WIRE -576 1536 -576 1488
WIRE 240 1536 208 1536
WIRE 592 1536 592 1520
WIRE -48 1568 -48 1504
WIRE 272 1632 272 1552
WIRE -352 1680 -352 1600
WIRE -48 1680 -48 1632
WIRE 592 1680 592 1616
WIRE -576 1696 -576 1616
WIRE 208 1696 208 1536
FLAG -464 1504 0
FLAG -576 1344 +5V
FLAG -576 1696 -5V
FLAG -352 1680 0
FLAG 272 1440 +5V
FLAG 272 1632 -5V
FLAG 592 1680 0
FLAG 208 1696 0
FLAG -48 1680 0
SYMBOL voltage -576 1376 R0
WINDOW 123 0 0 Left 2
WINDOW 39 0 0 Left 2
SYMATTR InstName V2
SYMATTR Value 5
SYMBOL voltage -576 1520 R0
SYMATTR InstName V3
SYMATTR Value 5
SYMBOL Opamps\\LT1819 272 1520 R0
SYMATTR InstName U3
SYMBOL res -64 1360 R0
SYMATTR InstName R7
SYMATTR Value 79.578
SYMBOL res -96 1488 R90
WINDOW 0 0 56 VBottom 2
WINDOW 3 32 56 VTop 2
SYMATTR InstName R11
SYMATTR Value 39.78
SYMBOL res 160 1488 R90
WINDOW 0 0 56 VBottom 2
WINDOW 3 32 56 VTop 2
SYMATTR InstName R12
SYMATTR Value 26.53
SYMBOL res 608 1632 R180
WINDOW 0 36 76 Left 2
WINDOW 3 36 40 Left 2
SYMATTR InstName R13
SYMATTR Value 100K
SYMBOL cap 176 1392 R0
SYMATTR InstName C5
SYMATTR Value 10nf
SYMBOL cap -64 1568 R0
SYMATTR InstName C6
SYMATTR Value 120nF
SYMBOL voltage -352 1504 R0
WINDOW 123 24 124 Left 2
WINDOW 39 0 0 Left 2
SYMATTR InstName V6
SYMATTR Value ""
SYMATTR Value2 AC 1 0
TEXT 528 1848 Left 2 ;Multiple Feedback Active 2nd Order Low-pass Filter
TEXT -624 1872 Left 2 !.ac dec 100 1 100meg
